 Abaqus/Standard 3DEXPERIENCE R2016x                  DATE 27-Feb-2019 TIME 17:26:00
 SUMMARY OF JOB INFORMATION:
 STEP  INC ATT SEVERE EQUIL TOTAL  TOTAL      STEP       INC OF       DOF    IF
               DISCON ITERS ITERS  TIME/    TIME/LPF    TIME/LPF    MONITOR RIKS
               ITERS               FREQ
   1     1   1     0     2     2  1.00       1.00       1.000     
   2     1   1     0     2     2  2.00       1.00       1.000     
   3     1   1     0     2     2  3.00       1.00       1.000     
   4     1   1     0     2     2  4.00       1.00       1.000     
                          
 THE ANALYSIS HAS COMPLETED SUCCESSFULLY
