*Heading
** Job name: Job-1 Model name: A320-19
** Generated by: Abaqus/CAE 2016
*Preprint, echo=NO, model=NO, history=NO, contact=NO
**
** PARTS
**
*Part, name=A320
*Node
      1,        2771.,           0.,        112.5
      2,        2681.,           0.,        112.5
      3,        2681.,       -112.5,           0.
      4,        2771.,       -112.5,           0.
      5,        1421.,           0.,        112.5
      6,        1421.,       -112.5,           0.
      7,        1281.,           0.,        112.5
      8,        1281.,       -112.5,           0.
      9,        1141.,           0.,        112.5
     10,        1141.,       -112.5,           0.
     11,           0.,           0.,        112.5
     12,         153.,           0.,        112.5
     13,         153.,        112.5,           0.
     14,           0.,        112.5,           0.
     15,         153.,       -112.5,           0.
     16,        2681.,           0.,       -434.5
     17,        2681.,        112.5,           0.
     18,        2771.,        112.5,           0.
     19,        2771.,           0.,       -434.5
     20,        1421.,           0.,       -434.5
** ... 6534 like lines cut
*Element, type=S4R
   1,    1,   29,  831,   46
   2,   29,   30,  832,  831
   3,   30,   31,  833,  832
   4,   31,    2,   32,  833
   5,   46,  831,  834,   45
   6,  831,  832,  835,  834
   7,  832,  833,  836,  835
   8,  833,   32,   33,  836
   9,   45,  834,  837,   44
  10,  834,  835,  838,  837
  11,  835,  836,  839,  838
  12,  836,   33,   34,  839
  13,   44,  837,  840,   43
  14,  837,  838,  841,  840
  15,  838,  839,  842,  841
  16,  839,   34,   35,  842
  17,   43,  840,  843,   42
  18,  840,  841,  844,  843
  19,  841,  842,  845,  844
  20,  842,   35,   36,  845
** ... 6588 like lines cut
*Nset, nset=SKIN
    1,    2,    3,    4,    5,    6,    7,    8,    9,   10,   11,   12,   13,   14,   15,   16
   17,   18,   19,   20,   21,   22,   23,   24,   25,   26,   27,   28,   29,   30,   31,   32
   33,   34,   35,   36,   37,   38,   39,   40,   41,   42,   43,   44,   45,   46,   47,   48
   49,   50,   51,   52,   53,   54,   55,   56,   57,   58,   59,   60,   61,   62,   63,   64
   65,   66,   67,   68,   69,   70,   71,   72,   73,   74,   75,   76,   77,   78,   79,   80
   81,   82,   83,   84,   85,   86,   87,   88,   89,   90,   91,   92,   93,   94,   95,   96
   97,   98,   99,  100,  101,  102,  103,  104,  105,  106,  107,  108,  109,  110,  111,  112
  113,  114,  115,  116,  117,  118,  119,  120,  121,  122,  123,  124,  125,  126,  127,  128
  129,  130,  131,  132,  133,  134,  135,  136,  137,  138,  139,  140,  141,  142,  143,  144
  145,  146,  147,  148,  149,  150,  151,  152,  153,  154,  155,  156,  157,  158,  159,  160
  161,  162,  163,  164,  165,  166,  167,  168,  169,  170,  171,  172,  173,  174,  175,  176
  177,  178,  179,  180,  181,  182,  183,  184,  185,  186,  187,  188,  189,  190,  191,  192
  193,  194,  195,  196,  197,  198,  199,  200,  201,  202,  203,  204,  205,  206,  207,  208
  209,  210,  211,  212,  213,  214,  215,  216,  217,  218,  219,  220,  221,  222,  223,  224
  225,  226,  227,  228,  229,  230,  231,  232,  233,  234,  235,  236,  237,  238,  239,  240
  241,  242,  243,  244,  245,  246,  247,  248,  249,  250,  251,  252,  253,  254,  255,  256
  257,  258,  259,  260,  261,  262,  263,  264,  265,  266,  267,  268,  269,  270,  271,  272
  273,  274,  275,  276,  277,  278,  279,  280,  281,  282,  283,  284,  285,  286,  287,  288
  289,  290,  291,  292,  293,  294,  295,  296,  297,  298,  299,  300,  301,  302,  303,  304
  305,  306,  307,  308,  309,  310,  311,  312,  313,  314,  315,  316,  317,  318,  319,  320
** ... 334 like lines cut
*Elset, elset=SKIN
    1,    2,    3,    4,    5,    6,    7,    8,    9,   10,   11,   12,   13,   14,   15,   16
   17,   18,   19,   20,   21,   22,   23,   24,   25,   26,   27,   28,   29,   30,   31,   32
   33,   34,   35,   36,   37,   38,   39,   40,   41,   42,   43,   44,   45,   46,   47,   48
   49,   50,   51,   52,   53,   54,   55,   56,   57,   58,   59,   60,   61,   62,   63,   64
   65,   66,   67,   68,   69,   70,   71,   72,   73,   74,   75,   76,   77,   78,   79,   80
   81,   82,   83,   84,   85,   86,   87,   88,   89,   90,   91,   92,   93,   94,   95,   96
   97,   98,   99,  100,  101,  102,  103,  104,  105,  106,  107,  108,  109,  110,  111,  112
  113,  114,  115,  116,  117,  118,  119,  120,  121,  122,  123,  124,  125,  126,  127,  128
  129,  130,  131,  132,  133,  134,  135,  136,  137,  138,  139,  140,  141,  142,  143,  144
  145,  146,  147,  148,  149,  150,  151,  152,  153,  154,  155,  156,  157,  158,  159,  160
  161,  162,  163,  164,  165,  166,  167,  168,  169,  170,  171,  172,  173,  174,  175,  176
  177,  178,  179,  180,  181,  182,  183,  184,  185,  186,  187,  188,  189,  190,  191,  192
  193,  194,  195,  196,  197,  198,  199,  200,  201,  202,  203,  204,  205,  206,  207,  208
  209,  210,  211,  212,  213,  214,  215,  216,  217,  218,  219,  220,  221,  222,  223,  224
  225,  226,  227,  228,  229,  230,  231,  232,  233,  234,  235,  236,  237,  238,  239,  240
  241,  242,  243,  244,  245,  246,  247,  248,  249,  250,  251,  252,  253,  254,  255,  256
  257,  258,  259,  260,  261,  262,  263,  264,  265,  266,  267,  268,  269,  270,  271,  272
  273,  274,  275,  276,  277,  278,  279,  280,  281,  282,  283,  284,  285,  286,  287,  288
  289,  290,  291,  292,  293,  294,  295,  296,  297,  298,  299,  300,  301,  302,  303,  304
  305,  306,  307,  308,  309,  310,  311,  312,  313,  314,  315,  316,  317,  318,  319,  320
** ... 330 like lines cut
*Nset, nset=SPAR
    3,    4,    6,    8,   10,   13,   14,   15,   17,   18,   21,   22,   25,   27,   38,   39
   40,  102,  103,  104,  105,  106,  107,  108,  109,  110,  111,  112,  113,  114,  115,  116
  117,  118,  119,  120,  121,  122,  123,  124,  125,  126,  127,  128,  129,  130,  131,  132
  133,  134,  135,  136,  137,  138,  139,  140,  141,  142,  143,  144,  145,  146,  147,  148
  149,  150,  162,  163,  164,  165,  166,  178,  179,  180,  181,  182,  194,  195,  196,  197
  198,  250,  251,  252,  253,  254,  255,  256,  257,  258,  259,  260,  261,  262,  263,  264
  265,  266,  267,  268,  269,  270,  271,  272,  273,  274,  275,  276,  277,  278,  279,  280
  281,  282,  283,  284,  285,  286,  287,  288,  306,  307,  308,  424,  425,  426,  427,  428
  429,  430,  431,  432,  433,  434,  435,  436,  437,  438,  439,  440,  441,  442,  443,  444
  445,  446,  447,  448,  449,  450,  451,  452,  453,  454,  455,  456,  457,  458,  459,  460
  461,  462,  463,  464,  465,  466,  467,  468,  469,  470,  471,  472,  473,  474,  475,  476
  477,  478,  479,  480,  481,  482,  483,  484,  485,  486,  487,  488,  489,  490,  491,  492
  493,  494,  495,  496,  520,  521,  522,  523,  524,  609,  610,  611,  612,  613,  614,  615
  616,  617,  618,  619,  620,  621,  622,  623,  624,  625,  626,  627,  628,  629,  636,  637
  638,  639,  640,  641,  642,  643,  644,  645,  646,  647,  648,  649,  650,  651,  652,  653
  654,  655,  656,  657,  658,  659,  660,  661,  662,  663,  664,  665,  666,  667,  668,  669
  670,  671,  672,  673,  674,  765,  766,  767,  768,  769,  792,  793,  794,  795,  796,  797
  798,  799,  800,  801,  802,  803,  804,  805,  806,  807, 2369, 2370, 2371, 2372, 2373, 2374
 2375, 2376, 2377, 2378, 2379, 2380, 2381, 2382, 2383, 2384, 2385, 2386, 2387, 2388, 2389, 2390
 2391, 2392, 2393, 2394, 2395, 2396, 2397, 2398, 2399, 2400, 2401, 2402, 2403, 2404, 2405, 2406
** ... 51 like lines cut
*Elset, elset=SPAR
 1785, 1786, 1787, 1788, 1789, 1790, 1791, 1792, 1793, 1794, 1795, 1796, 1797, 1798, 1799, 1800
 1801, 1802, 1803, 1804, 1805, 1806, 1807, 1808, 1809, 1810, 1811, 1812, 1813, 1814, 1815, 1816
 1817, 1818, 1819, 1820, 1821, 1822, 1823, 1824, 1825, 1826, 1827, 1828, 1829, 1830, 1831, 1832
 1833, 1834, 1835, 1836, 1837, 1838, 1839, 1840, 1841, 1842, 1843, 1844, 1845, 1846, 1847, 1848
 1849, 1850, 1851, 1852, 1853, 1854, 1855, 1856, 1857, 1858, 1859, 1860, 1861, 1862, 1863, 1864
 1865, 1866, 1867, 1868, 1869, 1870, 1871, 1872, 1873, 1874, 1875, 1876, 1877, 1878, 1879, 1880
 1881, 1882, 1883, 1884, 1885, 1886, 1887, 1888, 1889, 1890, 1891, 1892, 1893, 1894, 1895, 1896
 1897, 1898, 1899, 1900, 1901, 1902, 1903, 1904, 1905, 1906, 1907, 1908, 1909, 1910, 1911, 1912
 1913, 1914, 1915, 1916, 1917, 1918, 1919, 1920, 1921, 1922, 1923, 1924, 1925, 1926, 1927, 1928
 1929, 1930, 1931, 1932, 1933, 1934, 1935, 1936, 1937, 1938, 1939, 1940, 1941, 1942, 1943, 1944
 1945, 1946, 1947, 1948, 1949, 1950, 1951, 1952, 1953, 1954, 1955, 1956, 1957, 1958, 1959, 1960
 1961, 1962, 1963, 1964, 1965, 1966, 1967, 1968, 1969, 1970, 1971, 1972, 1973, 1974, 1975, 1976
 1977, 1978, 1979, 1980, 1981, 1982, 1983, 1984, 1985, 1986, 1987, 1988, 1989, 1990, 1991, 1992
 1993, 1994, 1995, 1996, 1997, 1998, 1999, 2000, 2001, 2002, 2003, 2004, 2005, 2006, 2007, 2008
 2009, 2010, 2011, 2012, 2013, 2014, 2015, 2016, 2017, 2018, 2019, 2020, 2021, 2022, 2023, 2024
 2025, 2026, 2027, 2028, 2029, 2030, 2031, 2032, 2033, 2034, 2035, 2036, 2037, 2038, 2039, 2040
 2041, 2042, 2043, 2044, 2045, 2046, 2047, 2048, 2049, 2050, 2051, 2052, 2053, 2054, 2055, 2056
 2057, 2058, 2059, 2060, 2061, 2062, 2063, 2064, 2065, 2066, 2067, 2068, 2069, 2070, 2071, 2072
 2073, 2074, 2075, 2076, 2077, 2078, 2079, 2080, 2081, 2082, 2083, 2084, 2085, 2086, 2087, 2088
 2089, 2090, 2091, 2092, 2093, 2094, 2095, 2096, 2097, 2098, 2099, 2100, 2101, 2102, 2103, 2104
** ... 43 like lines cut
** Section: Section-1-SKIN
*Shell Section, elset=SKIN, material=ALUMINIUM
1.65, 5
** Section: Section-2-SPAR
*Shell Section, elset=SPAR, material=ALUMINIUM
2.9, 5
*End Part
**  
**
** ASSEMBLY
**
*Assembly, name=Assembly
**  
*Instance, name=A320-1, part=A320
*End Instance
**  
*Node
      1,         153.,           0.,           0.
      2,        1141.,        112.5,        112.5
      3,        1281.,           0.,           0.
      4,        1421.,        112.5,        112.5
      5,        2681.,           0.,           0.
      6,           0.,           0.,       -24.25
      7,   277.100006,           0.,       -24.25
      8,   554.200012,           0.,       -24.25
      9,   831.299988,           0.,       -24.25
     10,   1108.40002,           0.,       -24.25
     11,       1385.5,           0.,       -24.25
     12,   1662.59998,           0.,       -24.25
     13,   1939.69995,           0.,       -24.25
     14,   2216.80005,           0.,       -24.25
     15,    2493.8999,           0.,       -24.25
     16,        2771.,           0.,       -24.25
*Nset, nset=HINGE_2, instance=A320-1
   7,   8,  22,  23, 156, 157, 158, 159, 160, 161, 525, 526, 527, 528, 529, 530
 553, 554, 555, 556, 557, 558, 559, 560, 561, 562, 563, 564, 565, 566, 567, 568
 569, 570, 571, 572, 573, 574, 575, 576, 577, 578, 579, 580, 581, 582, 583, 584
 585, 586, 609, 610, 611, 612, 613, 614, 615, 616
*Nset, nset=M_SET-17
 1,
*Nset, nset=M_SET-18
 2,
*Nset, nset=M_SET-19
 3,
*Nset, nset=M_SET-20
 4,
*Nset, nset=M_SET-21
 5,
*Nset, nset=M_SET-22
 6,
*Nset, nset=M_SET-23
 7,
*Nset, nset=M_SET-24
 8,
*Nset, nset=M_SET-25
 9,
*Nset, nset=M_SET-26
 10,
*Nset, nset=M_SET-27
 11,
*Nset, nset=M_SET-28
 12,
*Nset, nset=M_SET-29
 13,
*Nset, nset=M_SET-30
 14,
*Nset, nset=M_SET-31
 15,
*Nset, nset=M_SET-32
 16,
*Nset, nset=POINT_6, instance=A320-1
  11,  14,  27,  28, 199, 200, 201, 202, 203, 204, 770, 771, 772, 773, 774, 775
 776, 777, 778, 779, 780, 781, 782, 783, 784, 785, 786, 800, 801, 802, 803, 804
 805, 806, 807, 808, 809, 810, 811, 812, 813, 814, 815, 816, 817, 818, 819, 820
 821, 822, 823, 824, 825, 826, 827, 828, 829, 830
*Nset, nset=POINT_7, instance=A320-1
  239,  254,  670,  726, 1267, 1306, 1345, 1384, 1423, 1462, 4332, 4371, 4410, 4449, 4488, 4527
 5140, 5141, 5142, 5143, 5144, 5145, 5146, 5147, 5148, 5149, 5150, 5151, 5152, 5153, 5154, 5155
 5156, 5737, 5738, 5739, 5740, 5741, 5742, 5743, 5744, 6440, 6441, 6442, 6443, 6444, 6445, 6446
 6447, 6448, 6449, 6450, 6451, 6452, 6453, 6454, 6455, 6456
*Nset, nset=POINT_8, instance=A320-1
  228,  265,  659,  715, 1256, 1295, 1334, 1373, 1412, 1451, 4343, 4382, 4421, 4460, 4499, 4538
 4953, 4954, 4955, 4956, 4957, 4958, 4959, 4960, 4961, 4962, 4963, 4964, 4965, 4966, 4967, 4968
 4969, 5649, 5650, 5651, 5652, 5653, 5654, 5655, 5656, 6253, 6254, 6255, 6256, 6257, 6258, 6259
 6260, 6261, 6262, 6263, 6264, 6265, 6266, 6267, 6268, 6269
*Nset, nset=POINT_9, instance=A320-1
  216,  277,  647,  703, 1244, 1283, 1322, 1361, 1400, 1439, 4355, 4394, 4433, 4472, 4511, 4550
 4749, 4750, 4751, 4752, 4753, 4754, 4755, 4756, 4757, 4758, 4759, 4760, 4761, 4762, 4763, 4764
 4765, 5553, 5554, 5555, 5556, 5557, 5558, 5559, 5560, 6049, 6050, 6051, 6052, 6053, 6054, 6055
 6056, 6057, 6058, 6059, 6060, 6061, 6062, 6063, 6064, 6065
*Nset, nset=POINT_10, instance=A320-1
  205,  288,  636,  692, 1233, 1272, 1311, 1350, 1389, 1428, 4366, 4405, 4444, 4483, 4522, 4561
 4562, 4563, 4564, 4565, 4566, 4567, 4568, 4569, 4570, 4571, 4572, 4573, 4574, 4575, 4576, 4577
 4578, 5465, 5466, 5467, 5468, 5469, 5470, 5471, 5472, 5862, 5863, 5864, 5865, 5866, 5867, 5868
 5869, 5870, 5871, 5872, 5873, 5874, 5875, 5876, 5877, 5878
*Nset, nset=POINT_11, instance=A320-1
  166,  520,  548, 1143, 1148, 1153, 1158, 1163, 1168, 2840, 2845, 2850, 2855, 2860, 2865, 2866
 2867, 2868, 2869, 2870, 2871, 2872, 2873, 2874, 2875, 2876, 2877, 2878, 2879, 2880, 2881, 2882
 4203, 4204, 4205, 4206, 4207, 4208, 4209, 4210, 4243, 4244, 4245, 4246, 4247, 4248, 4249, 4250
 4251, 4252, 4253, 4254, 4255, 4256, 4257, 4258, 4259
*Nset, nset=POINT_12, instance=A320-1
   86,  111,  372,  449,  888,  937,  986, 1035, 1084, 1133, 2181, 2182, 2183, 2184, 2185, 2186
 2187, 2188, 2189, 2190, 2191, 2192, 2193, 2194, 2195, 2196, 2197, 2681, 2682, 2683, 2684, 2685
 2686, 2687, 2688, 3614, 3615, 3616, 3617, 3618, 3619, 3620, 3621, 3622, 3623, 3624, 3625, 3626
 3627, 3628, 3629, 3630, 3878, 3927, 3976, 4025, 4074, 4123
*Nset, nset=POINT_13, instance=A320-1
   75,  122,  383,  460,  877,  926,  975, 1024, 1073, 1122, 1994, 1995, 1996, 1997, 1998, 1999
 2000, 2001, 2002, 2003, 2004, 2005, 2006, 2007, 2008, 2009, 2010, 2593, 2594, 2595, 2596, 2597
 2598, 2599, 2600, 3427, 3428, 3429, 3430, 3431, 3432, 3433, 3434, 3435, 3436, 3437, 3438, 3439
 3440, 3441, 3442, 3443, 3889, 3938, 3987, 4036, 4085, 4134
*Nset, nset=POINT_14, instance=A320-1
   64,  133,  394,  471,  866,  915,  964, 1013, 1062, 1111, 1807, 1808, 1809, 1810, 1811, 1812
 1813, 1814, 1815, 1816, 1817, 1818, 1819, 1820, 1821, 1822, 1823, 2505, 2506, 2507, 2508, 2509
 2510, 2511, 2512, 3240, 3241, 3242, 3243, 3244, 3245, 3246, 3247, 3248, 3249, 3250, 3251, 3252
 3253, 3254, 3255, 3256, 3900, 3949, 3998, 4047, 4096, 4145
*Nset, nset=POINT_15, instance=A320-1
   53,  144,  405,  482,  855,  904,  953, 1002, 1051, 1100, 1620, 1621, 1622, 1623, 1624, 1625
 1626, 1627, 1628, 1629, 1630, 1631, 1632, 1633, 1634, 1635, 1636, 2417, 2418, 2419, 2420, 2421
 2422, 2423, 2424, 3053, 3054, 3055, 3056, 3057, 3058, 3059, 3060, 3061, 3062, 3063, 3064, 3065
 3066, 3067, 3068, 3069, 3911, 3960, 4009, 4058, 4107, 4156
*Nset, nset=POINT_16, instance=A320-1
   1,   4,  18,  19,  41,  42,  43,  44,  45,  46, 309, 310, 311, 312, 313, 314
 315, 316, 317, 318, 319, 320, 321, 322, 323, 324, 325, 412, 413, 414, 415, 416
 417, 489, 490, 491, 492, 493, 494, 495, 496, 497, 498, 499, 500, 501, 502, 503
 504, 505, 506, 507, 508, 509, 510, 511, 512, 513
*Nset, nset=RIB_A, instance=A320-1
  12,  13,  15,  26, 188, 189, 190, 191, 192, 193, 244, 245, 246, 247, 248, 249
 731, 732, 733, 734, 735, 736, 737, 738, 739, 740, 741, 742, 743, 744, 745, 746
 747, 748, 749, 750, 751, 752, 753, 754, 755, 756, 757, 758, 759, 760, 761, 762
 763, 764, 792, 793, 794, 795, 796, 797, 798, 799
*Nset, nset=RIB_B, instance=A320-1
   9,  10,  24,  25, 172, 173, 174, 175, 176, 177, 587, 588, 589, 590, 591, 592
 593, 594, 595, 596, 597, 598, 599, 600, 601, 602, 603, 617, 618, 619, 620, 621
 622, 623, 624, 630, 631, 632, 633, 634, 635, 675, 676, 677, 678, 679, 680, 681
 682, 683, 684, 685, 686, 687, 688, 689, 690, 691
*Nset, nset=RIB_C, instance=A320-1
   5,   6,  20,  21,  96,  97,  98,  99, 100, 101, 346, 347, 348, 349, 350, 351
 352, 353, 354, 355, 356, 357, 358, 359, 360, 361, 362, 432, 433, 434, 435, 436
 437, 438, 439, 514, 515, 516, 517, 518, 519, 531, 532, 533, 534, 535, 536, 537
 538, 539, 540, 541, 542, 543, 544, 545, 546, 547
*Nset, nset=RIB_D, instance=A320-1
   2,   3,  16,  17,  32,  33,  34,  35,  36,  37, 289, 290, 291, 292, 293, 294
 295, 296, 297, 298, 299, 300, 301, 302, 303, 304, 305, 329, 330, 331, 332, 333
 334, 335, 336, 337, 338, 339, 340, 341, 342, 343, 344, 345, 418, 419, 420, 421
 422, 423, 424, 425, 426, 427, 428, 429, 430, 431
*Nset, nset=SET-33
 1,
*Nset, nset=SET-34
 3,
*Nset, nset=SET-35
 5,
*Nset, nset=SET-36
 2,
*Nset, nset=SET-37
 4,
*Nset, nset=SET-38
 6,
*Nset, nset=SET-39
 16,
*Nset, nset=SET-40
 7,
*Nset, nset=SET-41
 8,
*Nset, nset=SET-42
 9,
*Nset, nset=SET-43
 10,
*Nset, nset=SET-44
 11,
*Nset, nset=SET-45
 11,
*Nset, nset=SET-46
 12,
*Nset, nset=SET-47
 13,
*Nset, nset=SET-48
 14,
*Nset, nset=SET-49
 15,
*Nset, nset=SET-50
 14,
*Nset, nset=SET-51
 2,
*Nset, nset=SET-52
** ... 23 like lines cut
*Nset, nset=HINGE_2_CNS_, internal, instance=A320-1
   7,   8,  22,  23, 156, 157, 158, 159, 160, 161, 525, 526, 527, 528, 529, 530
 553, 554, 555, 556, 557, 558, 559, 560, 561, 562, 563, 564, 565, 566, 567, 568
 569, 570, 571, 572, 573, 574, 575, 576, 577, 578, 579, 580, 581, 582, 583, 584
 585, 586, 609, 610, 611, 612, 613, 614, 615, 616
*Nset, nset=POINT_6_CNS_, internal, instance=A320-1
  11,  14,  27,  28, 199, 200, 201, 202, 203, 204, 770, 771, 772, 773, 774, 775
 776, 777, 778, 779, 780, 781, 782, 783, 784, 785, 786, 800, 801, 802, 803, 804
 805, 806, 807, 808, 809, 810, 811, 812, 813, 814, 815, 816, 817, 818, 819, 820
 821, 822, 823, 824, 825, 826, 827, 828, 829, 830
*Nset, nset=POINT_7_CNS_, internal, instance=A320-1
  239,  254,  670,  726, 1267, 1306, 1345, 1384, 1423, 1462, 4332, 4371, 4410, 4449, 4488, 4527
 5140, 5141, 5142, 5143, 5144, 5145, 5146, 5147, 5148, 5149, 5150, 5151, 5152, 5153, 5154, 5155
 5156, 5737, 5738, 5739, 5740, 5741, 5742, 5743, 5744, 6440, 6441, 6442, 6443, 6444, 6445, 6446
 6447, 6448, 6449, 6450, 6451, 6452, 6453, 6454, 6455, 6456
*Nset, nset=POINT_8_CNS_, internal, instance=A320-1
  228,  265,  659,  715, 1256, 1295, 1334, 1373, 1412, 1451, 4343, 4382, 4421, 4460, 4499, 4538
 4953, 4954, 4955, 4956, 4957, 4958, 4959, 4960, 4961, 4962, 4963, 4964, 4965, 4966, 4967, 4968
 4969, 5649, 5650, 5651, 5652, 5653, 5654, 5655, 5656, 6253, 6254, 6255, 6256, 6257, 6258, 6259
 6260, 6261, 6262, 6263, 6264, 6265, 6266, 6267, 6268, 6269
*Nset, nset=POINT_9_CNS_, internal, instance=A320-1
  216,  277,  647,  703, 1244, 1283, 1322, 1361, 1400, 1439, 4355, 4394, 4433, 4472, 4511, 4550
 4749, 4750, 4751, 4752, 4753, 4754, 4755, 4756, 4757, 4758, 4759, 4760, 4761, 4762, 4763, 4764
 4765, 5553, 5554, 5555, 5556, 5557, 5558, 5559, 5560, 6049, 6050, 6051, 6052, 6053, 6054, 6055
 6056, 6057, 6058, 6059, 6060, 6061, 6062, 6063, 6064, 6065
*Nset, nset=POINT_10_CNS_, internal, instance=A320-1
  205,  288,  636,  692, 1233, 1272, 1311, 1350, 1389, 1428, 4366, 4405, 4444, 4483, 4522, 4561
 4562, 4563, 4564, 4565, 4566, 4567, 4568, 4569, 4570, 4571, 4572, 4573, 4574, 4575, 4576, 4577
 4578, 5465, 5466, 5467, 5468, 5469, 5470, 5471, 5472, 5862, 5863, 5864, 5865, 5866, 5867, 5868
 5869, 5870, 5871, 5872, 5873, 5874, 5875, 5876, 5877, 5878
*Nset, nset=POINT_11_CNS_, internal, instance=A320-1
  166,  520,  548, 1143, 1148, 1153, 1158, 1163, 1168, 2840, 2845, 2850, 2855, 2860, 2865, 2866
 2867, 2868, 2869, 2870, 2871, 2872, 2873, 2874, 2875, 2876, 2877, 2878, 2879, 2880, 2881, 2882
 4203, 4204, 4205, 4206, 4207, 4208, 4209, 4210, 4243, 4244, 4245, 4246, 4247, 4248, 4249, 4250
 4251, 4252, 4253, 4254, 4255, 4256, 4257, 4258, 4259
*Nset, nset=POINT_12_CNS_, internal, instance=A320-1
   86,  111,  372,  449,  888,  937,  986, 1035, 1084, 1133, 2181, 2182, 2183, 2184, 2185, 2186
 2187, 2188, 2189, 2190, 2191, 2192, 2193, 2194, 2195, 2196, 2197, 2681, 2682, 2683, 2684, 2685
 2686, 2687, 2688, 3614, 3615, 3616, 3617, 3618, 3619, 3620, 3621, 3622, 3623, 3624, 3625, 3626
 3627, 3628, 3629, 3630, 3878, 3927, 3976, 4025, 4074, 4123
*Nset, nset=POINT_13_CNS_, internal, instance=A320-1
   75,  122,  383,  460,  877,  926,  975, 1024, 1073, 1122, 1994, 1995, 1996, 1997, 1998, 1999
 2000, 2001, 2002, 2003, 2004, 2005, 2006, 2007, 2008, 2009, 2010, 2593, 2594, 2595, 2596, 2597
 2598, 2599, 2600, 3427, 3428, 3429, 3430, 3431, 3432, 3433, 3434, 3435, 3436, 3437, 3438, 3439
 3440, 3441, 3442, 3443, 3889, 3938, 3987, 4036, 4085, 4134
*Nset, nset=POINT_14_CNS_, internal, instance=A320-1
   64,  133,  394,  471,  866,  915,  964, 1013, 1062, 1111, 1807, 1808, 1809, 1810, 1811, 1812
 1813, 1814, 1815, 1816, 1817, 1818, 1819, 1820, 1821, 1822, 1823, 2505, 2506, 2507, 2508, 2509
 2510, 2511, 2512, 3240, 3241, 3242, 3243, 3244, 3245, 3246, 3247, 3248, 3249, 3250, 3251, 3252
 3253, 3254, 3255, 3256, 3900, 3949, 3998, 4047, 4096, 4145
*Nset, nset=POINT_15_CNS_, internal, instance=A320-1
   53,  144,  405,  482,  855,  904,  953, 1002, 1051, 1100, 1620, 1621, 1622, 1623, 1624, 1625
 1626, 1627, 1628, 1629, 1630, 1631, 1632, 1633, 1634, 1635, 1636, 2417, 2418, 2419, 2420, 2421
 2422, 2423, 2424, 3053, 3054, 3055, 3056, 3057, 3058, 3059, 3060, 3061, 3062, 3063, 3064, 3065
 3066, 3067, 3068, 3069, 3911, 3960, 4009, 4058, 4107, 4156
*Nset, nset=POINT_16_CNS_, internal, instance=A320-1
   1,   4,  18,  19,  41,  42,  43,  44,  45,  46, 309, 310, 311, 312, 313, 314
 315, 316, 317, 318, 319, 320, 321, 322, 323, 324, 325, 412, 413, 414, 415, 416
 417, 489, 490, 491, 492, 493, 494, 495, 496, 497, 498, 499, 500, 501, 502, 503
 504, 505, 506, 507, 508, 509, 510, 511, 512, 513
*Nset, nset=RIB_A_CNS_, internal, instance=A320-1
  12,  13,  15,  26, 188, 189, 190, 191, 192, 193, 244, 245, 246, 247, 248, 249
 731, 732, 733, 734, 735, 736, 737, 738, 739, 740, 741, 742, 743, 744, 745, 746
 747, 748, 749, 750, 751, 752, 753, 754, 755, 756, 757, 758, 759, 760, 761, 762
 763, 764, 792, 793, 794, 795, 796, 797, 798, 799
*Nset, nset=RIB_B_CNS_, internal, instance=A320-1
   9,  10,  24,  25, 172, 173, 174, 175, 176, 177, 587, 588, 589, 590, 591, 592
 593, 594, 595, 596, 597, 598, 599, 600, 601, 602, 603, 617, 618, 619, 620, 621
 622, 623, 624, 630, 631, 632, 633, 634, 635, 675, 676, 677, 678, 679, 680, 681
 682, 683, 684, 685, 686, 687, 688, 689, 690, 691
*Nset, nset=RIB_C_CNS_, internal, instance=A320-1
   5,   6,  20,  21,  96,  97,  98,  99, 100, 101, 346, 347, 348, 349, 350, 351
 352, 353, 354, 355, 356, 357, 358, 359, 360, 361, 362, 432, 433, 434, 435, 436
 437, 438, 439, 514, 515, 516, 517, 518, 519, 531, 532, 533, 534, 535, 536, 537
 538, 539, 540, 541, 542, 543, 544, 545, 546, 547
*Nset, nset=RIB_D_CNS_, internal, instance=A320-1
   2,   3,  16,  17,  32,  33,  34,  35,  36,  37, 289, 290, 291, 292, 293, 294
 295, 296, 297, 298, 299, 300, 301, 302, 303, 304, 305, 329, 330, 331, 332, 333
 334, 335, 336, 337, 338, 339, 340, 341, 342, 343, 344, 345, 418, 419, 420, 421
 422, 423, 424, 425, 426, 427, 428, 429, 430, 431
*Surface, type=NODE, name=RIB_A_CNS_, internal
RIB_A, 1.
*Surface, type=NODE, name=RIB_B_CNS_, internal
RIB_B, 1.
*Surface, type=NODE, name=HINGE_2_CNS_, internal
HINGE_2, 1.
*Surface, type=NODE, name=RIB_C_CNS_, internal
RIB_C, 1.
*Surface, type=NODE, name=RIB_D_CNS_, internal
RIB_D, 1.
*Surface, type=NODE, name=POINT_6_CNS_, internal
POINT_6, 1.
*Surface, type=NODE, name=POINT_7_CNS_, internal
POINT_7, 1.
*Surface, type=NODE, name=POINT_8_CNS_, internal
POINT_8, 1.
*Surface, type=NODE, name=POINT_9_CNS_, internal
POINT_9, 1.
*Surface, type=NODE, name=POINT_10_CNS_, internal
POINT_10, 1.
*Surface, type=NODE, name=POINT_11_CNS_, internal
POINT_11, 1.
*Surface, type=NODE, name=POINT_12_CNS_, internal
POINT_12, 1.
*Surface, type=NODE, name=POINT_13_CNS_, internal
POINT_13, 1.
*Surface, type=NODE, name=POINT_14_CNS_, internal
POINT_14, 1.
*Surface, type=NODE, name=POINT_15_CNS_, internal
POINT_15, 1.
*Surface, type=NODE, name=POINT_16_CNS_, internal
POINT_16, 1.
** Constraint: MPC-Constraint-1
*MPC
BEAM, RIB_A, M_SET-17
** Constraint: MPC-Constraint-2
*MPC
BEAM, RIB_B, M_SET-18
** Constraint: MPC-Constraint-3
*MPC
BEAM, HINGE_2, M_SET-19
** Constraint: MPC-Constraint-4
*MPC
BEAM, RIB_C, M_SET-20
** Constraint: MPC-Constraint-5
*MPC
BEAM, RIB_D, M_SET-21
** Constraint: MPC-Constraint-6
*MPC
BEAM, POINT_6, M_SET-22
** Constraint: MPC-Constraint-7
*MPC
BEAM, POINT_7, M_SET-23
** Constraint: MPC-Constraint-8
*MPC
BEAM, POINT_8, M_SET-24
** Constraint: MPC-Constraint-9
*MPC
BEAM, POINT_9, M_SET-25
** Constraint: MPC-Constraint-10
*MPC
BEAM, POINT_10, M_SET-26
** Constraint: MPC-Constraint-11
*MPC
BEAM, POINT_11, M_SET-27
** Constraint: MPC-Constraint-12
*MPC
BEAM, POINT_12, M_SET-28
** Constraint: MPC-Constraint-13
*MPC
BEAM, POINT_13, M_SET-29
** Constraint: MPC-Constraint-14
*MPC
BEAM, POINT_14, M_SET-30
** Constraint: MPC-Constraint-15
*MPC
BEAM, POINT_15, M_SET-31
** Constraint: MPC-Constraint-16
*MPC
BEAM, POINT_16, M_SET-32
*End Assembly
** 
** MATERIALS
** 
*Material, name=ALUMINIUM
*Elastic
 73.1, 0.33
** 
** BOUNDARY CONDITIONS
** 
** Name: Disp-BC-1 Type: Displacement/Rotation
*Boundary
SET-33, 2, 2
** Name: Disp-BC-2 Type: Displacement/Rotation
*Boundary
SET-33, 3, 3
** Name: Disp-BC-3 Type: Displacement/Rotation
*Boundary
SET-34, 1, 1
** Name: Disp-BC-4 Type: Displacement/Rotation
*Boundary
SET-34, 2, 2
** Name: Disp-BC-5 Type: Displacement/Rotation
*Boundary
SET-34, 3, 3
** Name: Disp-BC-6 Type: Displacement/Rotation
*Boundary
SET-35, 2, 2
** Name: Disp-BC-7 Type: Displacement/Rotation
*Boundary
SET-35, 3, 3
** ----------------------------------------------------------------
** 
** STEP: RotationUp
** 
*Step, name=RotationUp, nlgeom=NO
*Static
1., 1., 1e-05, 1.
** 
** BOUNDARY CONDITIONS
** 
** Name: Disp-BC-1 Type: Displacement/Rotation
*Boundary, op=NEW
** Name: Disp-BC-2 Type: Displacement/Rotation
*Boundary, op=NEW
** Name: Disp-BC-3 Type: Displacement/Rotation
*Boundary, op=NEW
SET-34, 1, 1
** Name: Disp-BC-4 Type: Displacement/Rotation
*Boundary, op=NEW
SET-34, 2, 2
** Name: Disp-BC-5 Type: Displacement/Rotation
*Boundary, op=NEW
SET-34, 3, 3
** Name: Disp-BC-6 Type: Displacement/Rotation
*Boundary, op=NEW
** Name: Disp-BC-7 Type: Displacement/Rotation
*Boundary, op=NEW
SET-35, 3, 3
** Name: Disp-BC-8 Type: Displacement/Rotation
*Boundary, op=NEW
SET-33, 2, 2, 11.03
** Name: Disp-BC-9 Type: Displacement/Rotation
*Boundary, op=NEW
SET-33, 3, 3
** Name: Disp-BC-10 Type: Displacement/Rotation
*Boundary, op=NEW
SET-34, 4, 4, 0.4538
** Name: Disp-BC-11 Type: Displacement/Rotation
*Boundary, op=NEW
SET-35, 2, 2, 16.42
** 
** OUTPUT REQUESTS
** 
*Restart, write, frequency=0
** 
** FIELD OUTPUT: F-Output-3
** 
*Output, field
*Contact Output
CDISP, CSTRESS
** 
** FIELD OUTPUT: F-Output-1
** 
*Node Output
CF, RF, RT, U
** 
** FIELD OUTPUT: F-Output-2
** 
*Element Output, directions=YES
LE, PE, PEEQ, PEMAG, S
** 
** HISTORY OUTPUT: H-Output-1
** 
*Output, history, variable=PRESELECT
*End Step
** ----------------------------------------------------------------
** 
** STEP: Jam1
** 
*Step, name=Jam1, nlgeom=NO
*Static
1., 1., 1e-05, 1.
** 
** BOUNDARY CONDITIONS
** 
** Name: Disp-BC-12 Type: Displacement/Rotation
*Boundary, fixed
SET-36, 3, 3
** 
** LOADS
** 
** Name: CFORCE-1   Type: Concentrated force
*Cload
SET-37, 3, -91.69
** Name: CFORCE-2   Type: Concentrated force
*Cload
SET-38, 2, -0.627
** Name: CFORCE-4   Type: Concentrated force
*Cload
SET-40, 2, -1.254
** Name: CFORCE-5   Type: Concentrated force
*Cload
SET-41, 2, -1.254
** Name: CFORCE-6   Type: Concentrated force
*Cload
SET-42, 2, -1.254
** Name: CFORCE-7   Type: Concentrated force
*Cload
SET-43, 2, -1.254
** Name: CFORCE-8   Type: Concentrated force
*Cload
SET-45, 2, -1.254
** Name: CFORCE-9   Type: Concentrated force
*Cload
SET-46, 2, -1.254
** Name: CFORCE-10   Type: Concentrated force
*Cload
SET-47, 2, -1.254
** Name: CFORCE-11   Type: Concentrated force
*Cload
SET-50, 2, -1.254
** Name: CFORCE-12   Type: Concentrated force
*Cload
SET-49, 2, -1.254
** Name: CFORCE-13   Type: Concentrated force
*Cload
SET-39, 2, -0.627
** 
** OUTPUT REQUESTS
** 
*Restart, write, frequency=0
** 
** FIELD OUTPUT: F-Output-6
** 
*Output, field
*Contact Output
CDISP, CSTRESS
** 
** FIELD OUTPUT: F-Output-4
** 
*Node Output
CF, RF, RT, U
** 
** FIELD OUTPUT: F-Output-5
** 
*Element Output, directions=YES
LE, MISES, PE, PEEQ, PEMAG, S
** 
** HISTORY OUTPUT: H-Output-2
** 
*Output, history, variable=PRESELECT
*End Step
** ----------------------------------------------------------------
** 
** STEP: RotationDown
** 
*Step, name=RotationDown, nlgeom=NO
*Static
1., 1., 1e-05, 1.
** 
** BOUNDARY CONDITIONS
** 
** Name: Disp-BC-3 Type: Displacement/Rotation
*Boundary, op=NEW
** Name: Disp-BC-4 Type: Displacement/Rotation
*Boundary, op=NEW
** Name: Disp-BC-5 Type: Displacement/Rotation
*Boundary, op=NEW
** Name: Disp-BC-7 Type: Displacement/Rotation
*Boundary, op=NEW
** Name: Disp-BC-8 Type: Displacement/Rotation
*Boundary, op=NEW
** Name: Disp-BC-9 Type: Displacement/Rotation
*Boundary, op=NEW
** Name: Disp-BC-10 Type: Displacement/Rotation
*Boundary, op=NEW
** Name: Disp-BC-11 Type: Displacement/Rotation
*Boundary, op=NEW
** Name: Disp-BC-12 Type: Displacement/Rotation
*Boundary, op=NEW
** Name: Disp-BC-13 Type: Displacement/Rotation
*Boundary, op=NEW
SET-33, 2, 2, 11.03
** Name: Disp-BC-14 Type: Displacement/Rotation
*Boundary, op=NEW
SET-33, 3, 3
** Name: Disp-BC-15 Type: Displacement/Rotation
*Boundary, op=NEW
SET-34, 1, 1
** Name: Disp-BC-16 Type: Displacement/Rotation
*Boundary, op=NEW
SET-34, 2, 2
** Name: Disp-BC-17 Type: Displacement/Rotation
*Boundary, op=NEW
SET-34, 3, 3
** Name: Disp-BC-18 Type: Displacement/Rotation
*Boundary, op=NEW
SET-34, 4, 4, -0.3316
** Name: Disp-BC-19 Type: Displacement/Rotation
*Boundary, op=NEW
SET-35, 2, 2, 16.42
** Name: Disp-BC-20 Type: Displacement/Rotation
*Boundary, op=NEW
SET-35, 3, 3
** 
** LOADS
** 
** Name: CFORCE-1   Type: Concentrated force
*Cload, op=NEW
** Name: CFORCE-2   Type: Concentrated force
*Cload, op=NEW
** Name: CFORCE-4   Type: Concentrated force
*Cload, op=NEW
** Name: CFORCE-5   Type: Concentrated force
*Cload, op=NEW
** Name: CFORCE-6   Type: Concentrated force
*Cload, op=NEW
** Name: CFORCE-7   Type: Concentrated force
*Cload, op=NEW
** Name: CFORCE-8   Type: Concentrated force
*Cload, op=NEW
** Name: CFORCE-9   Type: Concentrated force
*Cload, op=NEW
** Name: CFORCE-10   Type: Concentrated force
*Cload, op=NEW
** Name: CFORCE-11   Type: Concentrated force
*Cload, op=NEW
** Name: CFORCE-12   Type: Concentrated force
*Cload, op=NEW
** Name: CFORCE-13   Type: Concentrated force
*Cload, op=NEW
** 
** OUTPUT REQUESTS
** 
*Restart, write, frequency=0
** 
** FIELD OUTPUT: F-Output-9
** 
*Output, field
*Contact Output
CDISP, CSTRESS
** 
** FIELD OUTPUT: F-Output-7
** 
*Node Output
CF, RF, RT, U
** 
** FIELD OUTPUT: F-Output-8
** 
*Element Output, directions=YES
LE, MISES, PE, PEEQ, PEMAG, S
** 
** HISTORY OUTPUT: H-Output-3
** 
*Output, history, variable=PRESELECT
*End Step
** ----------------------------------------------------------------
** 
** STEP: Jam2
** 
*Step, name=Jam2, nlgeom=NO
*Static
1., 1., 1e-05, 1.
** 
** BOUNDARY CONDITIONS
** 
** Name: Disp-BC-21 Type: Displacement/Rotation
*Boundary, fixed
SET-51, 3, 3
** 
** LOADS
** 
** Name: CFORCE-15   Type: Concentrated force
*Cload
SET-52, 2, 0.418
** Name: CFORCE-16   Type: Concentrated force
*Cload
SET-53, 2, 0.418
** Name: CFORCE-17   Type: Concentrated force
*Cload
SET-54, 2, 0.836
** Name: CFORCE-18   Type: Concentrated force
*Cload
SET-55, 2, 0.836
** Name: CFORCE-19   Type: Concentrated force
*Cload
SET-56, 2, 0.836
** Name: CFORCE-20   Type: Concentrated force
*Cload
SET-57, 2, 0.836
** Name: CFORCE-21   Type: Concentrated force
*Cload
SET-58, 2, 0.836
** Name: CFORCE-22   Type: Concentrated force
*Cload
SET-59, 2, 0.836
** Name: CFORCE-23   Type: Concentrated force
*Cload
SET-60, 2, 0.836
** Name: CFORCE-24   Type: Concentrated force
*Cload
SET-61, 2, 0.836
** Name: CFORCE-25   Type: Concentrated force
*Cload
SET-62, 2, 0.836
** Name: CFORCE-26   Type: Concentrated force
*Cload
SET-63, 3, 91.69
** 
** OUTPUT REQUESTS
** 
*Restart, write, frequency=0
** 
** FIELD OUTPUT: F-Output-12
** 
*Output, field
*Contact Output
CDISP, CSTRESS
** 
** FIELD OUTPUT: F-Output-10
** 
*Node Output
CF, RF, RT, U
** 
** FIELD OUTPUT: F-Output-11
** 
*Element Output, directions=YES
LE, MISES, PE, PEEQ, PEMAG, S
** 
** HISTORY OUTPUT: H-Output-4
** 
*Output, history, variable=PRESELECT
*End Step
